 Coupled Input File name = coupling_veg_test.in

 Model Coupling: 


       Ocean Model MPI nodes: 000 - 007

       Waves Model MPI nodes: 008 - 011

 Model Input Parameters:  ROMS/TOMS version 3.7  
                          Wednesday - September 16, 2015 -  1:22:59 PM
 -----------------------------------------------------------------------------

SWAN grid   1 is preparing computation


 Vegetation Test Case

 Operating system : Linux
 CPU/hardware     : x86_64
 Compiler system  : ifort
 Compiler command : /usr/local/openmpi-1.4.3_intel-2011.4.191/bin/mpif90
 Compiler flags   : -heap-arrays -fp-model precise -g -check uninit -ftrapuv -traceback -assume byterecl -I/share/apps/mct-2.6.0_intel-2011.4.191/include -free

 Input Script  : 

 SVN Root URL  : https:://myroms.org/svn/src
 SVN Revision  : exported

 Local Root    : /scylla-a/home/tkalra/VEG_v1/COAWST_VEG
 Header Dir    : /scylla-a/home/tkalra/VEG_v1/square_VEG
 Header file   : veg_test.h
 Analytical Dir: /scylla-a/home/tkalra/VEG_v1/square_VEG

 Resolution, Grid 01: 0098x0098x040,  Parallel Nodes:   8,  Tiling: 004x002


 Physical Parameters, Grid: 01
 =============================

     345600  ntimes            Number of timesteps for 3-D equations.
      0.500  dt                Timestep size (s) for 3-D equations.
         20  ndtfast           Number of timesteps for 2-D equations between
                                 each 3D timestep.
          1  ERstr             Starting ensemble/perturbation run number.
          1  ERend             Ending ensemble/perturbation run number.
          0  nrrec             Number of restart records to read from disk.
          T  LcycleRST         Switch to recycle time-records in restart file.
       3600  nRST              Number of timesteps between the writing of data
                                 into restart fields.
       7200  ninfo             Number of timesteps between print of information
                                 to standard output.
          T  ldefout           Switch to create a new output NetCDF file(s).
       1200  nHIS              Number of timesteps between the writing fields
                                 into history file.
 1.0000E-03  nl_visc2          NLM Horizontal, harmonic mixing coefficient
                                 (m2/s) for momentum.
          F  LuvSponge         Turning OFF sponge on horizontal momentum.
          F  LtracerSponge(01) Turning OFF sponge on tracer 01: temp
          F  LtracerSponge(02) Turning OFF sponge on tracer 02: salt
 5.0000E-06  Akt_bak(01)       Background vertical mixing coefficient (m2/s)
                                 for tracer 01: temp
 5.0000E-06  Akt_bak(02)       Background vertical mixing coefficient (m2/s)
                                 for tracer 02: salt
 5.0000E-05  Akv_bak           Background vertical mixing coefficient (m2/s)
                                 for momentum.
 5.0000E-06  Akk_bak           Background vertical mixing coefficient (m2/s)
                                 for turbulent energy.
 5.0000E-06  Akp_bak           Background vertical mixing coefficient (m2/s)
                                 for turbulent generic statistical field.
      3.000  gls_p             GLS stability exponent.
      1.500  gls_m             GLS turbulent kinetic energy exponent.
     -1.000  gls_n             GLS turbulent length scale exponent.
 7.6000E-06  gls_Kmin          GLS minimum value of turbulent kinetic energy.
 1.0000E-12  gls_Pmin          GLS minimum value of dissipation.
 5.4770E-01  gls_cmu0          GLS stability coefficient.
 1.4400E+00  gls_c1            GLS shear production coefficient.
 1.9200E+00  gls_c2            GLS dissipation coefficient.
-4.0000E-01  gls_c3m           GLS stable buoyancy production coefficient.
 1.0000E+00  gls_c3p           GLS unstable buoyancy production coefficient.
 1.0000E+00  gls_sigk          GLS constant Schmidt number for TKE.
 1.3000E+00  gls_sigp          GLS constant Schmidt number for PSI.
   1400.000  charnok_alpha     Charnok factor for Zos calculation.
      0.500  zos_hsig_alpha    Factor for Zos calculation using Hsig(Awave).
      0.250  sz_alpha          Factor for Wave dissipation surface tke flux .
    100.000  crgban_cw         Factor for Craig/Banner surface tke flux.
      0.000  wec_alpha         WEC factor for roller/breaking energy distribution.
 3.0000E-04  rdrg              Linear bottom drag coefficient (m/s).
 2.5000E-02  rdrg2             Quadratic bottom drag coefficient.
 1.5000E-03  Zob               Bottom roughness (m).
 5.0000E-01  Zos               Surface roughness (m).
          2  Vtransform        S-coordinate transformation equation.
          4  Vstretching       S-coordinate stretching function.
 0.0000E+00  theta_s           S-coordinate surface control parameter.
 0.0000E+00  theta_b           S-coordinate bottom  control parameter.
 1.0000E+17  Tcline            S-coordinate surface/bottom layer width (m) used
                                 in vertical coordinate stretching.
   1025.000  rho0              Mean density (kg/m3) for Boussinesq approximation.
      0.000  dstart            Time-stamp assigned to model initialization (days).
20000101.00  time_ref          Reference time for units attribute (yyyymmdd.dd)
 0.0000E+00  Tnudg(01)         Nudging/relaxation time scale (days)
                                 for tracer 01: temp
 0.0000E+00  Tnudg(02)         Nudging/relaxation time scale (days)
                                 for tracer 02: salt
 0.0000E+00  Znudg             Nudging/relaxation time scale (days)
                                 for free-surface.
 0.0000E+00  M2nudg            Nudging/relaxation time scale (days)
                                 for 2D momentum.
 0.0000E+00  M3nudg            Nudging/relaxation time scale (days)
                                 for 3D momentum.
 0.0000E+00  obcfac            Factor between passive and active
                                 open boundary conditions.
          F  VolCons(1)        NLM western  edge boundary volume conservation.
          F  VolCons(2)        NLM southern edge boundary volume conservation.
          F  VolCons(3)        NLM eastern  edge boundary volume conservation.
          F  VolCons(4)        NLM northern edge boundary volume conservation.
     10.000  T0                Background potential temperature (C) constant.
     30.000  S0                Background salinity (PSU) constant.
   1027.000  R0                Background density (kg/m3) used in linear Equation
                                 of State.
 1.7000E-04  Tcoef             Thermal expansion coefficient (1/Celsius).
 7.6000E-04  Scoef             Saline contraction coefficient (1/PSU).
      1.000  gamma2            Slipperiness variable: free-slip (1.0) or 
                                                      no-slip (-1.0).
          F  LuvSrc            Turning OFF momentum point Sources/Sinks.
          F  LwSrc             Turning OFF volume influx point Sources/Sinks.
          F  LtracerSrc(01)    Turning OFF point Sources/Sinks on tracer 01: temp
          F  LtracerSrc(02)    Turning OFF point Sources/Sinks on tracer 02: salt
          F  LsshCLM           Turning OFF processing of SSH climatology.
          F  Lm2CLM            Turning OFF processing of 2D momentum climatology.
          F  Lm3CLM            Turning OFF processing of 3D momentum climatology.
          F  LtracerCLM(01)    Turning OFF processing of climatology tracer 01: temp
          F  LtracerCLM(02)    Turning OFF processing of climatology tracer 02: salt
          F  LnudgeM2CLM       Turning OFF nudging of 2D momentum climatology.
          F  LnudgeM3CLM       Turning OFF nudging of 3D momentum climatology.
          F  LnudgeTCLM(01)    Turning OFF nudging of climatology tracer 01: temp
          F  LnudgeTCLM(02)    Turning OFF nudging of climatology tracer 02: salt
          T  Hout(idFsur)      Write out free-surface.
          T  Hout(idUbar)      Write out 2D U-momentum component.
          T  Hout(idVbar)      Write out 2D V-momentum component.
          T  Hout(idUvel)      Write out 3D U-momentum component.
          T  Hout(idVvel)      Write out 3D V-momentum component.
          T  Hout(idWvel)      Write out W-momentum component.
          T  Hout(idOvel)      Write out omega vertical velocity.
          T  Hout(idUbms)      Write out bottom U-momentum stress.
          T  Hout(idVbms)      Write out bottom V-momentum stress.
          T  Hout(idUbrs)      Write out bottom U-current stress.
          T  Hout(idVbrs)      Write out bottom V-current stress.
          T  Hout(idUbws)      Write out wind-induced, bottom U-wave stress.
          T  Hout(idVbws)      Write out wind-induced, bottom V-wave stress.
          T  Hout(idUbcs)      Write out max wind + current, bottom U-wave stress.
          T  Hout(idVbcs)      Write out max wind + current, bottom V-wave stress.
          T  Hout(idUVwc)      Write out max wind + current, bottom UV-wave stress.
          T  Hout(idUbot)      Write out bed wave orbital U-velocity.
          T  Hout(idVbot)      Write out bed wave orbital V-velocity.
          T  Hout(idUbur)      Write out bottom U-momentum above bed.
          T  Hout(idVbvr)      Write out bottom V-momentum above bed.
          T  Hout(idU2rs)      Write out total 2D u-radiation stress.
          T  Hout(idV2rs)      Write out total 2D v-radiation stress.
          T  Hout(idU2Sd)      Write out 2D u-momentum stokes velocity.
          T  Hout(idV2Sd)      Write out 2D v-momentum stokes velocity.
          T  Hout(idU3rs)      Write out total 3D u-radiation stress.
          T  Hout(idV3rs)      Write out total 3D v-radiation stress.
          T  Hout(idU3Sd)      Write out 3D u-momentum stokes velocity.
          T  Hout(idV3Sd)      Write out 3D v-momentum stokes velocity.
          T  Hout(idW3Sd)      Write out 3D omega-momentum stokes velocity.
          T  Hout(idW3St)      Write out 3D w-momentum stokes velocity.
          T  Hout(idWztw)      Write out WEC quasi-static sea level adjustment.
          T  Hout(idWqsp)      Write out WEC quasi-static pressure.
          T  Hout(idWbeh)      Write out WEC Bernoulli head.
          T  Hout(idWamp)      Write out wave height.
          T  Hout(idWlen)      Write out wavelength.
          T  Hout(idWdir)      Write out wave direction.
          T  Hout(idWptp)      Write out wave surface period.
          T  Hout(idWpbt)      Write out wave bottom period.
          T  Hout(idWorb)      Write out wave bottom orbital velocity.
          T  Hout(idWdif)      Write out wave dissipation due to bottom friction.
          T  Hout(idWdib)      Write out wave dissipation due to breaking.
          T  Hout(idWdiw)      Write out wave dissipation due to white capping.
          T  Hout(idUwav)      Wave-avg surface u-velocity.
          T  Hout(idVwav)      Wave-avg surface v-velocity.
          T  Hout(idBott)      Write out bottom property 01: grain_diameter
          T  Hout(idBott)      Write out bottom property 07: bed_wave_amp
          T  Hout(idBott)      Write out bottom property 08: Zo_def
          T  Hout(idBott)      Write out bottom property 09: Zo_app
          T  Hout(idBott)      Write out bottom property 10: Zo_Nik
          T  Hout(idBott)      Write out bottom property 14: Zo_wbl
          T  Hout(idBott)      Write out bottom property 15: active_layer_thickness
          T  Hout(idBott)      Write out bottom property 18: dep_net
          T  Hout(idDano)      Write out density anomaly.
          T  Hout(idVvis)      Write out vertical viscosity: AKv.
          T  Hout(idTdif)      Write out vertical diffusion: AKt(itemp).
          T  Hout(idSdif)      Write out vertical diffusion: AKt(isalt).
          T  Hout(idMtke)      Write out turbulent kinetic energy.
          T  Hout(idMtls)      Write out turbulent generic length-scale.

 Output/Input Files:

             Output Restart File:  /clay/usgs/users/abeudin/veg_test/square/VEG/rst.nc
             Output History File:  /clay/usgs/users/abeudin/veg_test/square/VEG/his.nc
        Physical parameters File:  
                 Input Grid File:  square_grid_cart.nc
    Input Nonlinear Initial File:  square_ini_4vegp.nc
         Vegetation Parameters File:  vegetation.in

 Tile partition information for Grid 01:  0098x0098x0040  tiling: 004x002

     tile     Istr     Iend     Jstr     Jend     Npts

 Number of tracers:            4
        0        1       24        1       49    47040
        1       25       49        1       49    49000
        2       50       74        1       49    49000
        3       75       98        1       49    47040
        4        1       24       50       98    47040
        5       25       49       50       98    49000
        6       50       74       50       98    49000
        7       75       98       50       98    47040

 Tile minimum and maximum fractional coordinates for Grid 01:
   (interior points only)

     tile     Xmin     Xmax     Ymin     Ymax     grid

        0     0.50    24.50     0.50    49.50  RHO-points
        1    24.50    49.50     0.50    49.50  RHO-points
        2    49.50    74.50     0.50    49.50  RHO-points
        3    74.50    98.50     0.50    49.50  RHO-points
        4     0.50    24.50    49.50    98.50  RHO-points
        5    24.50    49.50    49.50    98.50  RHO-points
        6    49.50    74.50    49.50    98.50  RHO-points
        7    74.50    98.50    49.50    98.50  RHO-points

        0     1.00    24.50     0.50    49.50    U-points
        1    24.50    49.50     0.50    49.50    U-points
        2    49.50    74.50     0.50    49.50    U-points
        3    74.50    98.00     0.50    49.50    U-points
        4     1.00    24.50    49.50    98.50    U-points
        5    24.50    49.50    49.50    98.50    U-points
        6    49.50    74.50    49.50    98.50    U-points
        7    74.50    98.00    49.50    98.50    U-points

        0     0.50    24.50     1.00    49.50    V-points
        1    24.50    49.50     1.00    49.50    V-points
        2    49.50    74.50     1.00    49.50    V-points
        3    74.50    98.50     1.00    49.50    V-points
        4     0.50    24.50    49.50    98.00    V-points
        5    24.50    49.50    49.50    98.00    V-points
        6    49.50    74.50    49.50    98.00    V-points
        7    74.50    98.50    49.50    98.00    V-points

 Maximum halo size in XI and ETA directions:

               HaloSizeI(1) =     117
               HaloSizeJ(1) =     186
                TileSide(1) =      56
                TileSize(1) =    1848

 Node #  1 (pid=   16330) is active.
 Node #  2 (pid=   16331) is active.
 Node #  3 (pid=   16332) is active.
 Node #  4 (pid=   16333) is active.
 Node #  5 (pid=   16334) is active.
 Node #  6 (pid=   16335) is active.
 Node #  7 (pid=   16336) is active.


 Sediment Parameters, Grid: 01
 =============================


 Size     Sd50        Csed        Srho        Wsed        Erate       poros
 Class    (mm)       (kg/m3)     (kg/m3)     (mm/s)     (kg/m2/s)    (nondim)

   1    5.0000E-02  0.0000E+00  2.6500E+03  2.2000E+00  5.0000E-05  5.0000E-01
   2    2.0000E-01  0.0000E+00  2.6500E+03  2.1000E+01  5.0000E-05  5.0000E-01

         tau_ce      tau_cd      nl_tnu2     nl_tnu4     Akt_bak      Tnudg
         (N/m2)      (N/m2)      (m2/s)      (m4/s)       (m2/s)      (day)

   1    1.0700E-01  1.0000E+02  0.0000E+00  0.0000E+00  5.0000E-06  0.0000E+00
   2    1.7200E-01  1.0000E+02  0.0000E+00  0.0000E+00  5.0000E-06  0.0000E+00

         morph_fac
         (nondim)

   1    1.0000E+00
   2    1.0000E+00

 New bed layer formed when deposition exceeds 0.10000E-01 (m).
 Two first layers are combined when 2nd layer smaller than 0.00000E+00 (m).
 Rate coefficient for bed load transport = 0.15000E+00

          F  LtracerSponge(03Turning OFF sponge on tracer 03: sand_01
          F  LtracerSponge(04Turning OFF sponge on tracer 04: sand_02
          F  LtracerSrc(03)  Turning OFF point sources/Sink on tracer 03: sand_01
          F  LtracerSrc(04)  Turning OFF point sources/Sink on tracer 04: sand_02
          F  LtracerCLM(03)  Turning OFF processing of climatology tracer 03: sand_01
          F  LtracerCLM(04)  Turning OFF processing of climatology tracer 04: sand_02
          F  LnudgeTCLM(03)  Turning OFF nudging of climatology tracer 03: sand_01
          F  LnudgeTCLM(04)  Turning OFF nudging of climatology tracer 04: sand_02
          T  Hout(idTvar)   Write out sediment01: sand_01
          T  Hout(idTvar)   Write out sediment02: sand_02
          T  Hout(idfrac)   Write out bed fraction, sediment 01: sandfrac_01
          T  Hout(idfrac)   Write out bed fraction, sediment 02: sandfrac_02
          T  Hout(idfrac)   Write out mass, sediment 01: sandmass_01
          T  Hout(idfrac)   Write out mass, sediment 02: sandmass_02
          T  Hout(idSbed)   Write out BED property 01: bed_thickness
          T  Hout(idSbed)   Write out BED property 02: bed_age
          T  Hout(idSbed)   Write out BED property 03: bed_porosity


 Vegetation Parameters, Grid: 01
 =================================


 Nveg(unitless)  Cd_veg(unitless)  E_veg(N/m2)  Veg_massdens(kg/m3)

   1           1.0000E+00           1.0000E+09           8.0000E+02

 Lateral Boundary Conditions: NLM
 ============================

 Variable               Grid  West Edge    South Edge   East Edge    North Edge
 ---------              ----  ----------   ----------   ----------   ----------

 zeta                     1   Gradient     Closed       Gradient     Clamped

 ubar                     1   Gradient     Closed       Gradient     Reduced

 vbar                     1   Gradient     Closed       Gradient     Reduced

 u                        1   Gradient     Closed       Gradient     Reduced

 v                        1   Gradient     Closed       Gradient     Reduced

 temp                     1   Gradient     Closed       Gradient     Gradient

 salt                     1   Gradient     Closed       Gradient     Gradient

 sand_01                  1                Closed       Gradient     Gradient

 sand_02                  1                Closed       Gradient     Gradient

 tke                      1   Gradient     Closed       Gradient     Gradient

 ubar_stokes              1   Gradient     Closed       Gradient     Gradient

 vbar_stokes              1   Gradient     Closed       Gradient     Gradient

 u_stokes                 1   Gradient     Closed       Gradient     Gradient

 v_stokes                 1   Gradient     Closed       Gradient     Gradient

 Activated C-preprocessing Options:

 VEG_TEST            Vegetation Test Case
 ANA_BPFLUX          Analytical bottom passive tracers fluxes.
 ANA_BSFLUX          Analytical kinematic bottom salinity flux.
 ANA_BTFLUX          Analytical kinematic bottom temperature flux.
 ANA_FSOBC           Analytical free-surface boundary conditions.
 ANA_M2OBC           Analytical 2D momentum boundary conditions.
 ANA_SMFLUX          Analytical kinematic surface momentum flux.
 ANA_SPFLUX          Analytical surface passive tracer fluxes.
 ANA_SSFLUX          Analytical kinematic surface salinity flux.
 ANA_STFLUX          Analytical kinematic surface temperature flux.
 ASSUMED_SHAPE       Using assumed-shape arrays.
 VEGETATION          Active submerged/emergent vegetation effects.
 DJ_GRADPS           Parabolic Splines density Jacobian (Shchepetkin, 2002).
 DOUBLE_PRECISION    Double precision arithmetic.
 GLS_MIXING          Generic Length-Scale turbulence closure.
 KANTHA_CLAYSON      Kantha and Clayson stability function formulation.
 MASKING             Land/Sea masking.
 MCT_LIB             Using Model Coupling Toolkit library.
 MIX_S_UV            Mixing of momentum along constant S-surfaces.
 MPI                 MPI distributed-memory configuration.
 WEC_VF              Vortex Force wave current interaction.
 BOTTOM_STREAMING    Wave current streaming term.
 WDISS_WAVEMOD       Wave energy dissipation acquired from coupled wave model.
 NONLINEAR           Nonlinear Model.
 !NONLIN_EOS         Linear Equation of State for seawater.
 N2S2_HORAVG         Horizontal smoothing of buoyancy and shear.
 POWER_LAW           Power-law shape time-averaging barotropic filter.
 PROFILE             Time profiling activated .
 K_GSCHEME           Third-order upstream advection of TKE fields.
 !RST_SINGLE         Double precision fields in restart NetCDF file.
 SEDIMENT            Cohesive and noncohesive sediments.
 SUSPLOAD            Activate suspended sediment transport.
 NONCOHESIVE_BED1    Activate non-cohesive (original) sediment bed.
 SOLVE3D             Solving 3D Primitive Equations.
 SPLINES             Conservative parabolic spline reconstruction.
 SSW_BBL             Styles and Glenn Bottom Boundary Layer - modified.
 SSW_CALC_ZNOT       Internal computation of bottom roughness.
 SWAN_COUPLING       SWAN model coupling.
 TS_MPDATA           Recursive flux corrected MPDATA 3D advection of tracers.
 UV_ADV              Advection of momentum.
 UV_U3HADVECTION     Third-order upstream horizontal advection of 3D momentum.
 UV_C4VADVECTION     Fourth-order centered vertical advection of momentum.
 UV_KIRBY            Compute uwave and vwave Kirby avg velocities.
 UV_VIS2             Harmonic mixing of momentum.
 VAR_RHO_2D          Variable density barotropic mode.
 WAVES_OCEAN         Two-way wave-ocean models coupling.

 Process Information:

 Node #  0 (pid=   16329) is active.

 INITIAL: Configuring and initializing forward nonlinear model ...
 *******

 Vertical S-coordinate System, Grid 01:

 level   S-coord     Cs-curve   Z   at hmin       at hc    half way     at hmax

    40   0.0000000   0.0000000        0.000       0.000       0.000       0.000
    39  -0.0250000  -0.0006250       -0.025      -0.025      -0.025      -0.025
    38  -0.0500000  -0.0025000       -0.050      -0.050      -0.050      -0.050
    37  -0.0750000  -0.0056250       -0.075      -0.075      -0.075      -0.075
    36  -0.1000000  -0.0100000       -0.100      -0.100      -0.100      -0.100
    35  -0.1250000  -0.0156250       -0.125      -0.125      -0.125      -0.125
    34  -0.1500000  -0.0225000       -0.150      -0.150      -0.150      -0.150
    33  -0.1750000  -0.0306250       -0.175      -0.175      -0.175      -0.175
    32  -0.2000000  -0.0400000       -0.200      -0.200      -0.200      -0.200
    31  -0.2250000  -0.0506250       -0.225      -0.225      -0.225      -0.225
    30  -0.2500000  -0.0625000       -0.250      -0.250      -0.250      -0.250
    29  -0.2750000  -0.0756250       -0.275      -0.275      -0.275      -0.275
    28  -0.3000000  -0.0900000       -0.300      -0.300      -0.300      -0.300
    27  -0.3250000  -0.1056250       -0.325      -0.325      -0.325      -0.325
    26  -0.3500000  -0.1225000       -0.350      -0.350      -0.350      -0.350
    25  -0.3750000  -0.1406250       -0.375      -0.375      -0.375      -0.375
    24  -0.4000000  -0.1600000       -0.400      -0.400      -0.400      -0.400
    23  -0.4250000  -0.1806250       -0.425      -0.425      -0.425      -0.425
    22  -0.4500000  -0.2025000       -0.450      -0.450      -0.450      -0.450
    21  -0.4750000  -0.2256250       -0.475      -0.475      -0.475      -0.475
    20  -0.5000000  -0.2500000       -0.500      -0.500      -0.500      -0.500
    19  -0.5250000  -0.2756250       -0.525      -0.525      -0.525      -0.525
    18  -0.5500000  -0.3025000       -0.550      -0.550      -0.550      -0.550
    17  -0.5750000  -0.3306250       -0.575      -0.575      -0.575      -0.575
    16  -0.6000000  -0.3600000       -0.600      -0.600      -0.600      -0.600
    15  -0.6250000  -0.3906250       -0.625      -0.625      -0.625      -0.625
    14  -0.6500000  -0.4225000       -0.650      -0.650      -0.650      -0.650
    13  -0.6750000  -0.4556250       -0.675      -0.675      -0.675      -0.675
    12  -0.7000000  -0.4900000       -0.700      -0.700      -0.700      -0.700
    11  -0.7250000  -0.5256250       -0.725      -0.725      -0.725      -0.725
    10  -0.7500000  -0.5625000       -0.750      -0.750      -0.750      -0.750
     9  -0.7750000  -0.6006250       -0.775      -0.775      -0.775      -0.775
     8  -0.8000000  -0.6400000       -0.800      -0.800      -0.800      -0.800
     7  -0.8250000  -0.6806250       -0.825      -0.825      -0.825      -0.825
     6  -0.8500000  -0.7225000       -0.850      -0.850      -0.850      -0.850
     5  -0.8750000  -0.7656250       -0.875      -0.875      -0.875      -0.875
     4  -0.9000000  -0.8100000       -0.900      -0.900      -0.900      -0.900
     3  -0.9250000  -0.8556250       -0.925      -0.925      -0.925      -0.925
     2  -0.9500000  -0.9025000       -0.950      -0.950      -0.950      -0.950
     1  -0.9750000  -0.9506250       -0.975      -0.975      -0.975      -0.975
     0  -1.0000000  -1.0000000       -1.000      -1.000      -1.000      -1.000

 Time Splitting Weights for Grid 01:    ndtfast =  20    nfast =  29
 ==================================

    Primary            Secondary            Accumulated to Current Step

  1-0.0009651193358779 0.0500000000000000-0.0009651193358779 0.0500000000000000
  2-0.0013488780126037 0.0500482559667939-0.0023139973484816 0.1000482559667939
  3-0.0011514592651645 0.0501156998674241-0.0034654566136460 0.1501639558342179
  4-0.0003735756740661 0.0501732728306823-0.0038390322877122 0.2003372286649002
  5 0.0009829200513762 0.0501919516143856-0.0028561122363360 0.2505291802792858
  6 0.0029141799764308 0.0501428056118168 0.0000580677400948 0.3006719858911026
  7 0.0054132615310267 0.0499970966129952 0.0054713292711215 0.3506690825040978
  8 0.0084687837865132 0.0497264335364439 0.0139401130576347 0.4003955160405417
  9 0.0120633394191050 0.0493029943471183 0.0260034524767397 0.4496985103876600
 10 0.0161716623600090 0.0486998273761630 0.0421751148367486 0.4983983377638230
 11 0.0207585511322367 0.0478912442581626 0.0629336659689853 0.5462895820219856
 12 0.0257765478740990 0.0468533167015507 0.0887102138430843 0.5931428987235363
 13 0.0311633730493853 0.0455644893078458 0.1198735868924696 0.6387073880313821
 14 0.0368391158442262 0.0440063206553765 0.1567127027366958 0.6827137086867585
 15 0.0427031802506397 0.0421643648631652 0.1994158829873354 0.7248780735499237
 16 0.0486309868367616 0.0400292058506332 0.2480468698240970 0.7649072794005569
 17 0.0544704302037591 0.0375976565087951 0.3025173000278562 0.8025049359093520
 18 0.0600380921294285 0.0348741349986072 0.3625553921572847 0.8373790709079592
 19 0.0651152103984763 0.0318722303921358 0.4276706025557610 0.8692513013000949
 20 0.0694434033194839 0.0286164698722119 0.4971140058752449 0.8978677711723068
 21 0.0727201499285569 0.0251442997062377 0.5698341558038018 0.9230120708785445
 22 0.0745940258796570 0.0215082922098099 0.6444281816834588 0.9445203630883544
 23 0.0746596950216180 0.0177785909158270 0.7190878767050768 0.9622989540041814
 24 0.0724526566618460 0.0140456061647461 0.7915405333669228 0.9763445601689276
 25 0.0674437485167025 0.0104229733316538 0.8589842818836253 0.9867675335005814
 26 0.0590334053485720 0.0070507859058187 0.9180176872321973 0.9938183194064002
 27 0.0465456732896125 0.0040991156383901 0.9645633605218099 0.9979174350447904
 28 0.0292219798521905 0.0017718319739095 0.9937853403740005 0.9996892670186999
 29 0.0062146596259994 0.0003107329813000 0.9999999999999999 0.9999999999999999

 ndtfast, nfast =   20  29   nfast/ndtfast =  1.45000

 Centers of gravity and integrals (values must be 1, 1, approx 1/2, 1, 1):

    1.000000000000 1.060707743385 0.530353871693 1.000000000000 1.000000000000

 Power filter parameters, Fgamma, gamma =  0.28400   0.14200

 Metrics information for Grid 01:
 ===============================

 Minimum X-grid spacing, DXmin =  1.00007877E-01 km
 Maximum X-grid spacing, DXmax =  1.00008000E-01 km
 Minimum Y-grid spacing, DYmin =  1.00008000E-01 km
 Maximum Y-grid spacing, DYmax =  1.00008000E-01 km
 Minimum Z-grid spacing, DZmin =  2.50000000E-02 m
 Maximum Z-grid spacing, DZmax =  2.50000000E-02 m

 Minimum barotropic Courant Number =  1.10727315E-03
 Maximum barotropic Courant Number =  1.10727383E-03
 Maximum Coriolis   Courant Number =  1.14542421E-07


 NLM: GET_STATE - Read state initial conditions,             t =     0 00:00:00
                   (Grid 01, File: square_ini_4vegp.nc, Rec=0001, Index=1)
                - free-surface
                   (Min =  0.00000000E+00 Max =  0.00000000E+00)
                - vertically integrated u-momentum component
                   (Min =  0.00000000E+00 Max =  0.00000000E+00)
                - vertically integrated v-momentum component
                   (Min =  0.00000000E+00 Max =  0.00000000E+00)
                - u-momentum component
                   (Min =  0.00000000E+00 Max =  0.00000000E+00)
                - v-momentum component
                   (Min =  0.00000000E+00 Max =  0.00000000E+00)
                - potential temperature
                   (Min =  2.00000000E+01 Max =  2.00000000E+01)
                - salinity
                   (Min =  3.00000000E+01 Max =  3.00000000E+01)
                - suspended noncohesive sediment, size class 01
                   (Min =  0.00000000E+00 Max =  0.00000000E+00)
                - suspended noncohesive sediment, size class 02
                   (Min =  0.00000000E+00 Max =  0.00000000E+00)
                - noncohesive sediment fraction, size class 01
                   (Min =  5.00000000E-01 Max =  5.00000000E-01)
                - noncohesive sediment mass, size class 01
                   (Min =  6.62500000E+03 Max =  6.62500000E+03)
                - noncohesive sediment fraction, size class 02
                   (Min =  5.00000000E-01 Max =  5.00000000E-01)
                - noncohesive sediment mass, size class 02
                   (Min =  6.62500000E+03 Max =  6.62500000E+03)
                - sediment bed layer thickness
                   (Min =  1.00000000E+01 Max =  1.00000000E+01)
                - sediment layer age
                   (Min =  0.00000000E+00 Max =  0.00000000E+00)
                - sediment layer porosity
                   (Min =  5.00000000E-01 Max =  5.00000000E-01)
                - biodiffusivity at bottom of each layer
                   (Min =  0.00000000E+00 Max =  0.00000000E+00)
                - plant density
                   (Min =  0.00000000E+00 Max =  2.50000000E+03)
                - plant height
                   (Min =  0.00000000E+00 Max =  3.00000000E-01)
                - plant diameter
                   (Min =  0.00000000E+00 Max =  1.00000000E-02)
                - plant thickness
                   (Min =  0.00000000E+00 Max =  5.00000000E-04)
                - sediment median grain diameter size
                   (Min =  1.25000000E-04 Max =  1.25000000E-04)
                - sediment median grain density
                   (Min =  2.65000000E+03 Max =  2.65000000E+03)
                - sediment median grain settling velocity
                   (Min =  5.00000000E-04 Max =  5.00000000E-04)
                - sediment median critical erosion stress
                   (Min =  2.50000000E-02 Max =  2.50000000E-02)
                - bottom ripple length
                   (Min =  0.00000000E+00 Max =  0.00000000E+00)
                - bottom ripple height
                   (Min =  0.00000000E+00 Max =  0.00000000E+00)

 Basin information for Grid 01:

 Maximum grid stiffness ratios:  rx0 =   0.000000E+00 (Beckmann and Haidvogel)
                                 rx1 =   0.000000E+00 (Haney)

 Initial basin volumes: TotVolume =  9.6055327313E+07 m3
                        MinVolume =  2.5003969927E+02 m3
                        MaxVolume =  2.5004000148E+02 m3
                          Max/Min =  1.0000012087E+00
 == SWAN grid  1 sent wave data to ROMS grid  1
 ** ROMS grid  1 recv data from SWAN grid  1


 == SWAN grid  1 recv data from ROMS grid  1
 ** ROMS grid  1 sent data to SWAN grid  1



 NL ROMS/TOMS: started time-stepping: (Grid: 01 TimeSteps: 00000001 - 00345600)

+time 20000101.001000   , step      1; iteration    1; sweep 1 grid   1

   STEP   Day HH:MM:SS  KINETIC_ENRG   POTEN_ENRG    TOTAL_ENRG    NET_VOLUME
          C => (i,j,k)       Cu            Cv            Cw         Max Speed

      0     0 00:00:00  0.000000E+00  4.906216E+00  4.906216E+00  9.605533E+07
            (00,00,00)  0.000000E+00  0.000000E+00  0.000000E+00  0.000000E+00
+time 20000101.001000   , step      1; iteration    1; sweep 2 grid   1
+time 20000101.001000   , step      1; iteration    1; sweep 3 grid   1
+time 20000101.001000   , step      1; iteration    1; sweep 4 grid   1
