
 Model Input Parameters:  ROMS/TOMS version 3.7  
                          Thursday - September 3, 2015 - 11:46:17 AM
 -----------------------------------------------------------------------------

 WFH with coawst_veg

 Operating system : Linux
 CPU/hardware     : x86_64
 Compiler system  : ifort
 Compiler command : /soft/intel/composer_xe_2013_sp1.2.144/bin/intel64/ifort
 Compiler flags   : -heap-arrays -fp-model precise -ip -O3 -xW -free -free

 SVN Root URL  : https:://myroms.org/svn/src
 SVN Revision  : Unversioned directory

 Local Root    : /scylla-a/home/nganju/models/COAWST_VEG/COAWST_VEG
 Header Dir    : /scylla-a/home/nganju/wfh
 Header file   : wfh.h
 Analytical Dir: /scylla-a/home/nganju/wfh

 Resolution, Grid 01: 0148x0198x010,  Parallel Threads:  1,  Tiling: 001x001


 Physical Parameters, Grid: 01
 =============================

         10  ntimes            Number of timesteps for 3-D equations.
      2.000  dt                Timestep size (s) for 3-D equations.
         20  ndtfast           Number of timesteps for 2-D equations between
                                 each 3D timestep.
          1  ERstr             Starting ensemble/perturbation run number.
          1  ERend             Ending ensemble/perturbation run number.
          1  nrrec             Number of restart records to read from disk.
          T  LcycleRST         Switch to recycle time-records in restart file.
        450  nRST              Number of timesteps between the writing of data
                                 into restart fields.
          1  ninfo             Number of timesteps between print of information
                                 to standard output.
          T  ldefout           Switch to create a new output NetCDF file(s).
          1  nHIS              Number of timesteps between the writing fields
                                 into history file.
      90000  ndefHIS           Number of timesteps between creation of new
                                 history files.
          F  LuvSponge         Turning OFF sponge on horizontal momentum.
          F  LtracerSponge(01) Turning OFF sponge on tracer 01: temp
          F  LtracerSponge(02) Turning OFF sponge on tracer 02: salt
 1.0000E-06  Akt_bak(01)       Background vertical mixing coefficient (m2/s)
                                 for tracer 01: temp
 1.0000E-06  Akt_bak(02)       Background vertical mixing coefficient (m2/s)
                                 for tracer 02: salt
 1.0000E-05  Akv_bak           Background vertical mixing coefficient (m2/s)
                                 for momentum.
 5.0000E-06  Akk_bak           Background vertical mixing coefficient (m2/s)
                                 for turbulent energy.
 5.0000E-06  Akp_bak           Background vertical mixing coefficient (m2/s)
                                 for turbulent generic statistical field.
      3.000  gls_p             GLS stability exponent.
      1.500  gls_m             GLS turbulent kinetic energy exponent.
     -1.000  gls_n             GLS turbulent length scale exponent.
 7.6000E-06  gls_Kmin          GLS minimum value of turbulent kinetic energy.
 1.0000E-12  gls_Pmin          GLS minimum value of dissipation.
 5.4770E-01  gls_cmu0          GLS stability coefficient.
 1.4400E+00  gls_c1            GLS shear production coefficient.
 1.9200E+00  gls_c2            GLS dissipation coefficient.
-4.0000E-01  gls_c3m           GLS stable buoyancy production coefficient.
 1.0000E+00  gls_c3p           GLS unstable buoyancy production coefficient.
 1.0000E+00  gls_sigk          GLS constant Schmidt number for TKE.
 1.3000E+00  gls_sigp          GLS constant Schmidt number for PSI.
   1400.000  charnok_alpha     Charnok factor for Zos calculation.
      0.500  zos_hsig_alpha    Factor for Zos calculation using Hsig(Awave).
      0.250  sz_alpha          Factor for Wave dissipation surface tke flux .
    100.000  crgban_cw         Factor for Craig/Banner surface tke flux.
      0.000  wec_alpha         WEC factor for roller/breaking energy distribution.
 3.0000E-04  rdrg              Linear bottom drag coefficient (m/s).
 1.5000E-03  rdrg2             Quadratic bottom drag coefficient.
 1.0000E-03  Zob               Bottom roughness (m).
 2.0000E-02  Zos               Surface roughness (m).
 1.0000E+01  blk_ZQ            Height (m) of surface air humidity measurement.
 1.0000E+01  blk_ZT            Height (m) of surface air temperature measurement.
 1.0000E+01  blk_ZW            Height (m) of surface winds measurement.
 1.0000E-01  Dcrit             Minimum depth for wetting and drying (m).
          1  lmd_Jwt           Jerlov water type.
          1  Vtransform        S-coordinate transformation equation.
          1  Vstretching       S-coordinate stretching function.
 0.0000E+00  theta_s           S-coordinate surface control parameter.
 0.0000E+00  theta_b           S-coordinate bottom  control parameter.
      0.000  Tcline            S-coordinate surface/bottom layer width (m) used
                                 in vertical coordinate stretching.
   1025.000  rho0              Mean density (kg/m3) for Boussinesq approximation.
      0.699  dstart            Time-stamp assigned to model initialization (days).
20100702.00  time_ref          Reference time for units attribute (yyyymmdd.dd)
 2.5000E-01  Tnudg(01)         Nudging/relaxation time scale (days)
                                 for tracer 01: temp
 2.5000E-01  Tnudg(02)         Nudging/relaxation time scale (days)
                                 for tracer 02: salt
 0.0000E+00  Znudg             Nudging/relaxation time scale (days)
                                 for free-surface.
 0.0000E+00  M2nudg            Nudging/relaxation time scale (days)
                                 for 2D momentum.
 0.0000E+00  M3nudg            Nudging/relaxation time scale (days)
                                 for 3D momentum.
 1.0000E+00  obcfac            Factor between passive and active
                                 open boundary conditions.
          F  VolCons(1)        NLM western  edge boundary volume conservation.
          F  VolCons(2)        NLM southern edge boundary volume conservation.
          F  VolCons(3)        NLM eastern  edge boundary volume conservation.
          F  VolCons(4)        NLM northern edge boundary volume conservation.
     10.000  T0                Background potential temperature (C) constant.
     30.000  S0                Background salinity (PSU) constant.
   1027.000  R0                Background density (kg/m3) used in linear Equation
                                 of State.
 1.7000E-04  Tcoef             Thermal expansion coefficient (1/Celsius).
 7.6000E-04  Scoef             Saline contraction coefficient (1/PSU).
      1.000  gamma2            Slipperiness variable: free-slip (1.0) or 
                                                      no-slip (-1.0).
          T  LuvSrc            Turning ON  momentum point Sources/Sinks.
          F  LwSrc             Turning OFF volume influx point Sources/Sinks.
          T  LtracerSrc(01)    Turning ON  point Sources/Sinks on tracer 01: temp
          T  LtracerSrc(02)    Turning ON  point Sources/Sinks on tracer 02: salt
          F  LsshCLM           Turning OFF processing of SSH climatology.
          F  Lm2CLM            Turning OFF processing of 2D momentum climatology.
          F  Lm3CLM            Turning OFF processing of 3D momentum climatology.
          F  LtracerCLM(01)    Turning OFF processing of climatology tracer 01: temp
          F  LtracerCLM(02)    Turning OFF processing of climatology tracer 02: salt
          F  LnudgeM2CLM       Turning OFF nudging of 2D momentum climatology.
          F  LnudgeM3CLM       Turning OFF nudging of 3D momentum climatology.
          F  LnudgeTCLM(01)    Turning OFF nudging of climatology tracer 01: temp
          F  LnudgeTCLM(02)    Turning OFF nudging of climatology tracer 02: salt
          T  Hout(idFsur)      Write out free-surface.
          T  Hout(idUbar)      Write out 2D U-momentum component.
          T  Hout(idVbar)      Write out 2D V-momentum component.
          T  Hout(idUvel)      Write out 3D U-momentum component.
          T  Hout(idVvel)      Write out 3D V-momentum component.
          T  Hout(idWvel)      Write out W-momentum component.
          T  Hout(idOvel)      Write out omega vertical velocity.
          T  Hout(idTvar)      Write out tracer 01: temp
          T  Hout(idTvar)      Write out tracer 02: salt
          T  Hout(idTsur)      Write out surface net heat flux.
          T  Hout(idSrad)      Write out shortwave radiation flux.
          T  Hout(idLrad)      Write out longwave radiation flux.
          T  Hout(idLhea)      Write out latent heat flux.
          T  Hout(idShea)      Write out sensible heat flux.
          T  Hout(idDano)      Write out density anomaly.
          T  Hout(idVvis)      Write out vertical viscosity: AKv.
          T  Hout(idTdif)      Write out vertical diffusion: AKt(itemp).
          T  Hout(idSdif)      Write out vertical diffusion: AKt(isalt).

 Output/Input Files:

             Output Restart File:  wfh_rst.nc
        Prefix for History Files:  ./his_pilarspect
                 Input Grid File:  /clay/usgs/users/nganju/wfh/wfh_grid_12.nc
    Input Nonlinear Initial File:  /clay/usgs/users/nganju/wfh/wfh_oxycarb_initial.nc
        Input Sources/Sinks File:  /clay/usgs/users/nganju/wfh/wfh_river_bio_NO3var.nc
           Input Forcing File 01:  /clay/usgs/users/nganju/wfh/wfh_zeta_ubar_forc_2012.nc
           Input Forcing File 02:  /clay/usgs/users/nganju/wfh/wfh_river_bio_NO3var.nc
           Input Forcing File 03:  /clay/usgs/users/nganju/wfh/wfh_bulk_frc_2012.nc
         Input Boundary File 01:  /clay/usgs/users/nganju/wfh/wfh_zeta_ubar_forc_2012.nc
         Input Boundary File 02:  /clay/usgs/users/nganju/wfh/wfh_river_bio_NO3var.nc
         Biology Parameters File:  ./external/bio_Fennel_VEG.in

 Tile partition information for Grid 01:  0148x0198x0010  tiling: 001x001

     tile     Istr     Iend     Jstr     Jend     Npts

 Number of tracers:           14
        0        1      148        1      198   293040

 Tile minimum and maximum fractional coordinates for Grid 01:
   (interior points only)

     tile     Xmin     Xmax     Ymin     Ymax     grid

        0     0.50   149.50     0.50   199.50  RHO-points

        0     0.00   149.00     0.50   199.50    U-points

        0     0.50   149.50     0.00   199.00    V-points


 Fennel Model Parameters, Grid: 01
 =================================

          1  BioIter           Number of iterations for nonlinear convergence.
 4.0000E-02  AttSW             Light attenuation of seawater (m-1).
 2.4860E-02  AttChl            Light attenuation by chlorophyll (1/(mg_Chl m-2)).
 4.3000E-01  PARfrac           Fraction of shortwave radiation that is
                                 photosynthetically active (nondimensional).
 1.0000E+00  Vp0               Eppley temperature-limited growth parameter
                                 (nondimensional).
 9.5000E-03  I_thNH4           Radiation threshold for nitrification (W/m2).
 1.0000E-01  D_p5NH4           Half-saturation radiation for nitrification (W/m2).
 5.0000E-02  NitriR            Nitrification rate (day-1).
 2.0000E+00  K_NO3             Inverse half-saturation for phytoplankton NO3
                                 uptake (1/(mmol_N m-3)).
 2.0000E+00  K_NH4             Inverse half-saturation for phytoplankton NH4
                                 uptake (1/(mmol_N m-3)).
 2.0000E+00  K_Phy             Zooplankton half-saturation constant for ingestion
                                 (mmol_N m-3)^2.
 5.3500E-02  Chl2C_m           Maximum chlorophyll to carbon ratio (mg_Chl/mg_C).
 1.0000E-03  ChlMin            Chlorophyll minimum threshold (mg_Chl/m3).
 6.6250E+00  PhyCN             Phytoplankton Carbon:Nitrogen ratio (mol_C/mol_N).
 1.5000E+00  PhyIP             Phytoplankton NH4 inhibition parameter (1/mmol_N).
 2.5000E-02  PhyIS             Phytoplankton growth, initial slope of P-I curve
                                 (mg_C/(mg_Chl Watts m-2 day)).
 1.0000E-03  PhyMin            Phytoplankton minimum threshold (mmol_N/m3).
 1.5000E-01  PhyMR             Phytoplankton mortality rate (day-1).
 7.5000E-01  ZooAE_N           Zooplankton nitrogen assimilation efficiency
                                 (nondimensional).
 1.0000E-01  ZooBM             Rate for zooplankton basal metabolism (1/day).
 6.6250E+00  ZooCN             Zooplankton Carbon:Nitrogen ratio (mol_C/mol_N).
 1.0000E-01  ZooER             Zooplankton specific excretion rate (day-1).
 6.0000E-01  ZooGR             Zooplankton maximum growth rate (day-1).
 1.0000E-03  ZooMin            Zooplankton minimum threshold (mmol_N/m3).
 2.5000E-02  ZooMR             Zooplankton mortality rate (day-1).
 1.0000E-02  LDeRRN            Large detritus N re-mineralization rate (day-1).
 1.0000E-02  LDeRRC            Large detritus C re-mineralization rate (day-1).
 5.0000E-03  CoagR             Coagulation rate (day-1).
 3.0000E-02  SDeRRN            Remineralization rate for small detritus N (day-1).
 3.0000E-02  SDeRRC            Remineralization rate for small detritus C (day-1).
 1.0000E-01  wPhy              Phytoplankton sinking velocity (m/day).
 1.0000E+00  wLDet             Large detritus sinking velocity (m/day).
 1.0000E-01  wSDet             Small detritus sinking velocity (m/day).
 3.7000E+02  pCO2air           CO2 partial pressure in air (ppm by volume).
          F  LtracerSponge(03) Turning OFF sponge on tracer 03: NO3
          F  LtracerSponge(04) Turning OFF sponge on tracer 04: NH4
          F  LtracerSponge(05) Turning OFF sponge on tracer 05: chlorophyll
          F  LtracerSponge(06) Turning OFF sponge on tracer 06: phytoplankton
          F  LtracerSponge(07) Turning OFF sponge on tracer 07: zooplankton
          F  LtracerSponge(08) Turning OFF sponge on tracer 08: LdetritusN
          F  LtracerSponge(09) Turning OFF sponge on tracer 09: SdetritusN
          F  LtracerSponge(10) Turning OFF sponge on tracer 10: LdetritusC
          F  LtracerSponge(11) Turning OFF sponge on tracer 11: SdetritusC
          F  LtracerSponge(12) Turning OFF sponge on tracer 12: TIC
          F  LtracerSponge(13) Turning OFF sponge on tracer 13: Talk
          F  LtracerSponge(14) Turning OFF sponge on tracer 14: oxyg
 1.0000E-06  Akt_bak(03)       Background vertical mixing coefficient (m2/s)
                                 for tracer 03: NO3
 1.0000E-06  Akt_bak(04)       Background vertical mixing coefficient (m2/s)
                                 for tracer 04: NH4
 1.0000E-06  Akt_bak(05)       Background vertical mixing coefficient (m2/s)
                                 for tracer 05: chlorophyll
 1.0000E-06  Akt_bak(06)       Background vertical mixing coefficient (m2/s)
                                 for tracer 06: phytoplankton
 1.0000E-06  Akt_bak(07)       Background vertical mixing coefficient (m2/s)
                                 for tracer 07: zooplankton
 1.0000E-06  Akt_bak(08)       Background vertical mixing coefficient (m2/s)
                                 for tracer 08: LdetritusN
 1.0000E-06  Akt_bak(09)       Background vertical mixing coefficient (m2/s)
                                 for tracer 09: SdetritusN
 1.0000E-06  Akt_bak(10)       Background vertical mixing coefficient (m2/s)
                                 for tracer 10: LdetritusC
 1.0000E-06  Akt_bak(11)       Background vertical mixing coefficient (m2/s)
                                 for tracer 11: SdetritusC
 1.0000E-06  Akt_bak(12)       Background vertical mixing coefficient (m2/s)
                                 for tracer 12: TIC
 1.0000E-06  Akt_bak(13)       Background vertical mixing coefficient (m2/s)
                                 for tracer 13: Talk
 1.0000E-06  Akt_bak(14)       Background vertical mixing coefficient (m2/s)
                                 for tracer 14: oxyg
 0.0000E+00  Tnudg(03)         Nudging/relaxation time scale (days)
                                 for tracer 03: NO3
 0.0000E+00  Tnudg(04)         Nudging/relaxation time scale (days)
                                 for tracer 04: NH4
 0.0000E+00  Tnudg(05)         Nudging/relaxation time scale (days)
                                 for tracer 05: chlorophyll
 0.0000E+00  Tnudg(06)         Nudging/relaxation time scale (days)
                                 for tracer 06: phytoplankton
 0.0000E+00  Tnudg(07)         Nudging/relaxation time scale (days)
                                 for tracer 07: zooplankton
 0.0000E+00  Tnudg(08)         Nudging/relaxation time scale (days)
                                 for tracer 08: LdetritusN
 0.0000E+00  Tnudg(09)         Nudging/relaxation time scale (days)
                                 for tracer 09: SdetritusN
 0.0000E+00  Tnudg(10)         Nudging/relaxation time scale (days)
                                 for tracer 10: LdetritusC
 0.0000E+00  Tnudg(11)         Nudging/relaxation time scale (days)
                                 for tracer 11: SdetritusC
 0.0000E+00  Tnudg(12)         Nudging/relaxation time scale (days)
                                 for tracer 12: TIC
 0.0000E+00  Tnudg(13)         Nudging/relaxation time scale (days)
                                 for tracer 13: Talk
 0.0000E+00  Tnudg(14)         Nudging/relaxation time scale (days)
                                 for tracer 14: oxyg
          F  LtracerSrc(03)    Turning OFF point sources/Sink on tracer 03: NO3
          F  LtracerSrc(04)    Turning OFF point sources/Sink on tracer 04: NH4
          F  LtracerSrc(05)    Turning OFF point sources/Sink on tracer 05: chlorophyll
          F  LtracerSrc(06)    Turning OFF point sources/Sink on tracer 06: phytoplankton
          F  LtracerSrc(07)    Turning OFF point sources/Sink on tracer 07: zooplankton
          F  LtracerSrc(08)    Turning OFF point sources/Sink on tracer 08: LdetritusN
          F  LtracerSrc(09)    Turning OFF point sources/Sink on tracer 09: SdetritusN
          F  LtracerSrc(10)    Turning OFF point sources/Sink on tracer 10: LdetritusC
          F  LtracerSrc(11)    Turning OFF point sources/Sink on tracer 11: SdetritusC
          F  LtracerSrc(12)    Turning OFF point sources/Sink on tracer 12: TIC
          F  LtracerSrc(13)    Turning OFF point sources/Sink on tracer 13: Talk
          F  LtracerSrc(14)    Turning OFF point sources/Sink on tracer 14: oxyg
          F  LtracerCLM(03)    Turning OFF processing of climatology tracer 03: NO3
          F  LtracerCLM(04)    Turning OFF processing of climatology tracer 04: NH4
          F  LtracerCLM(05)    Turning OFF processing of climatology tracer 05: chlorophyll
          F  LtracerCLM(06)    Turning OFF processing of climatology tracer 06: phytoplankton
          F  LtracerCLM(07)    Turning OFF processing of climatology tracer 07: zooplankton
          F  LtracerCLM(08)    Turning OFF processing of climatology tracer 08: LdetritusN
          F  LtracerCLM(09)    Turning OFF processing of climatology tracer 09: SdetritusN
          F  LtracerCLM(10)    Turning OFF processing of climatology tracer 10: LdetritusC
          F  LtracerCLM(11)    Turning OFF processing of climatology tracer 11: SdetritusC
          F  LtracerCLM(12)    Turning OFF processing of climatology tracer 12: TIC
          F  LtracerCLM(13)    Turning OFF processing of climatology tracer 13: Talk
          F  LtracerCLM(14)    Turning OFF processing of climatology tracer 14: oxyg
          F  LnudgeTCLM(03)    Turning OFF nudging of climatology tracer 03: NO3
          F  LnudgeTCLM(04)    Turning OFF nudging of climatology tracer 04: NH4
          F  LnudgeTCLM(05)    Turning OFF nudging of climatology tracer 05: chlorophyll
          F  LnudgeTCLM(06)    Turning OFF nudging of climatology tracer 06: phytoplankton
          F  LnudgeTCLM(07)    Turning OFF nudging of climatology tracer 07: zooplankton
          F  LnudgeTCLM(08)    Turning OFF nudging of climatology tracer 08: LdetritusN
          F  LnudgeTCLM(09)    Turning OFF nudging of climatology tracer 09: SdetritusN
          F  LnudgeTCLM(10)    Turning OFF nudging of climatology tracer 10: LdetritusC
          F  LnudgeTCLM(11)    Turning OFF nudging of climatology tracer 11: SdetritusC
          F  LnudgeTCLM(12)    Turning OFF nudging of climatology tracer 12: TIC
          F  LnudgeTCLM(13)    Turning OFF nudging of climatology tracer 13: Talk
          F  LnudgeTCLM(14)    Turning OFF nudging of climatology tracer 14: oxyg
          T  Hout(idTvar)      Write out tracer 03: NO3
          T  Hout(idTvar)      Write out tracer 04: NH4
          T  Hout(idTvar)      Write out tracer 05: chlorophyll
          T  Hout(idTvar)      Write out tracer 06: phytoplankton
          T  Hout(idTvar)      Write out tracer 07: zooplankton
          T  Hout(idTvar)      Write out tracer 08: LdetritusN
          T  Hout(idTvar)      Write out tracer 09: SdetritusN
          T  Hout(idTvar)      Write out tracer 10: LdetritusC
          T  Hout(idTvar)      Write out tracer 11: SdetritusC
          T  Hout(idTvar)      Write out tracer 12: TIC
          T  Hout(idTvar)      Write out tracer 13: Talk
          T  Hout(idTvar)      Write out tracer 14: oxyg

 Lateral Boundary Conditions: NLM
 ============================

 Variable               Grid  West Edge    South Edge   East Edge    North Edge
 ---------              ----  ----------   ----------   ----------   ----------

 zeta                     1   Chapman Exp  Closed       Closed       Closed

 ubar                     1   Flather      Closed       Closed       Closed

 vbar                     1   Flather      Closed       Closed       Closed

 u                        1   Radiation    Closed       Closed       Closed

 v                        1   Radiation    Closed       Closed       Closed

 temp                     1   Rad + Nud    Closed       Closed       Closed

 salt                     1   Rad + Nud    Closed       Closed       Closed

 NO3                      1   Periodic     Closed       Periodic     Closed

 NH4                      1   Periodic     Closed       Periodic     Closed

 chlorophyll              1   Periodic     Closed       Periodic     Closed

 phytoplankton            1   Periodic     Closed       Periodic     Closed

 zooplankton              1   Periodic     Closed       Periodic     Closed

 LdetritusN               1   Periodic     Closed       Periodic     Closed

 SdetritusN               1   Periodic     Closed       Periodic     Closed

 LdetritusC               1   Periodic     Closed       Periodic     Closed

 SdetritusC               1   Periodic     Closed       Periodic     Closed

 TIC                      1   Periodic     Closed       Periodic     Closed

 Talk                     1   Periodic     Closed       Periodic     Closed

 oxyg                     1   Periodic     Closed       Periodic     Closed

 tke                      1   Radiation    Closed       Closed       Closed

 Activated C-preprocessing Options:

 WFH                 WFH with coawst_veg
 ANA_BPFLUX          Analytical bottom passive tracers fluxes.
 ANA_BSFLUX          Analytical kinematic bottom salinity flux.
 ANA_BTFLUX          Analytical kinematic bottom temperature flux.
 ANA_CLOUD           Analytical cloud fraction.
 ANA_RAIN            Analytical rain fall rate.
 ANA_SPFLUX          Analytical surface passive tracer fluxes.
 ANA_SSFLUX          Analytical kinematic surface salinity flux.
 ASSUMED_SHAPE       Using assumed-shape arrays.
 BIO_FENNEL          Fennel et al. (2006) nitrogen-based model.
 BIO_SEDIMENT        Restore fallen particulate material to the nutrient pool.
 BULK_FLUXES         Surface bulk fluxes parameterization.
 CARBON              Add Carbon constituents.
 CURVGRID            Orthogonal curvilinear grid.
 DENITRIFICATION     Add denitrification processes.
 DJ_GRADPS           Parabolic Splines density Jacobian (Shchepetkin, 2002).
 DOUBLE_PRECISION    Double precision arithmetic.
 GLS_MIXING          Generic Length-Scale turbulence closure.
 KANTHA_CLAYSON      Kantha and Clayson stability function formulation.
 LONGWAVE            Compute net longwave radiation internally.
 MASKING             Land/Sea masking.
 NONLINEAR           Nonlinear Model.
 !NONLIN_EOS         Linear Equation of State for seawater.
 NO_LBC_ATT          Not checking NetCDF global attribute NLM_LBC during restart.
 N2S2_HORAVG         Horizontal smoothing of buoyancy and shear.
 OUT_DOUBLE          Double precision output fields in NetCDF files.
 !OCMIP_OXYGEN_SC    Schmidt number from Wanninkhof (1992).
 OXYGEN              Add oxygen dynamics.
 POWER_LAW           Power-law shape time-averaging barotropic filter.
 PROFILE             Time profiling activated .
 K_GSCHEME           Third-order upstream advection of TKE fields.
 !RST_SINGLE         Double precision fields in restart NetCDF file.
 SALINITY            Using salinity.
 SOLAR_SOURCE        Solar Radiation Source Term.
 SOLVE3D             Solving 3D Primitive Equations.
 SPLINES             Conservative parabolic spline reconstruction.
 !TALK_NONCONSERV    Alkalinity is passive and unaffected by nitrate or ammonium.
 TS_U3HADVECTION     Third-order upstream horizontal advection of tracers.
 TS_C4VADVECTION     Fourth-order centered vertical advection of tracers.
 UV_ADV              Advection of momentum.
 UV_U3HADVECTION     Third-order upstream horizontal advection of 3D momentum.
 UV_C4VADVECTION     Fourth-order centered vertical advection of momentum.
 UV_QDRAG            Quadratic bottom stress.
 VAR_RHO_2D          Variable density barotropic mode.
 WET_DRY             Wetting and drying activated.

 Process Information:

 Thread #  0 (pid=   14033) is active.

 INITIAL: Configuring and initializing forward nonlinear model ...
 *******

 Vertical S-coordinate System, Grid 01:

 level   S-coord     Cs-curve   Z   at hmin       at hc    half way     at hmax

    10   0.0000000   0.0000000        0.000       0.000       0.000       0.000
     9  -0.1000000  -0.1000000        0.512       0.000       0.006      -0.500
     8  -0.2000000  -0.2000000        1.025       0.000       0.012      -1.000
     7  -0.3000000  -0.3000000        1.537       0.000       0.019      -1.500
     6  -0.4000000  -0.4000000        2.049       0.000       0.025      -2.000
     5  -0.5000000  -0.5000000        2.562       0.000       0.031      -2.500
     4  -0.6000000  -0.6000000        3.074       0.000       0.037      -3.000
     3  -0.7000000  -0.7000000        3.587       0.000       0.043      -3.500
     2  -0.8000000  -0.8000000        4.099       0.000       0.049      -4.000
     1  -0.9000000  -0.9000000        4.611       0.000       0.056      -4.500
     0  -1.0000000  -1.0000000        5.124       0.000       0.062      -5.000

 Time Splitting Weights for Grid 01:    ndtfast =  20    nfast =  29
 ==================================

    Primary            Secondary            Accumulated to Current Step

  1-0.0009651193358779 0.0500000000000000-0.0009651193358779 0.0500000000000000
  2-0.0013488780126037 0.0500482559667939-0.0023139973484816 0.1000482559667939
  3-0.0011514592651645 0.0501156998674241-0.0034654566136460 0.1501639558342179
  4-0.0003735756740661 0.0501732728306823-0.0038390322877122 0.2003372286649002
  5 0.0009829200513762 0.0501919516143856-0.0028561122363360 0.2505291802792858
  6 0.0029141799764308 0.0501428056118168 0.0000580677400948 0.3006719858911026
  7 0.0054132615310267 0.0499970966129952 0.0054713292711215 0.3506690825040978
  8 0.0084687837865132 0.0497264335364439 0.0139401130576347 0.4003955160405417
  9 0.0120633394191050 0.0493029943471183 0.0260034524767397 0.4496985103876600
 10 0.0161716623600090 0.0486998273761630 0.0421751148367486 0.4983983377638230
 11 0.0207585511322367 0.0478912442581626 0.0629336659689853 0.5462895820219856
 12 0.0257765478740990 0.0468533167015507 0.0887102138430843 0.5931428987235363
 13 0.0311633730493853 0.0455644893078458 0.1198735868924696 0.6387073880313821
 14 0.0368391158442262 0.0440063206553765 0.1567127027366958 0.6827137086867585
 15 0.0427031802506397 0.0421643648631652 0.1994158829873354 0.7248780735499237
 16 0.0486309868367616 0.0400292058506332 0.2480468698240970 0.7649072794005569
 17 0.0544704302037591 0.0375976565087951 0.3025173000278562 0.8025049359093520
 18 0.0600380921294285 0.0348741349986072 0.3625553921572847 0.8373790709079592
 19 0.0651152103984763 0.0318722303921358 0.4276706025557610 0.8692513013000949
 20 0.0694434033194839 0.0286164698722119 0.4971140058752449 0.8978677711723068
 21 0.0727201499285569 0.0251442997062377 0.5698341558038018 0.9230120708785445
 22 0.0745940258796570 0.0215082922098099 0.6444281816834588 0.9445203630883544
 23 0.0746596950216180 0.0177785909158270 0.7190878767050768 0.9622989540041814
 24 0.0724526566618460 0.0140456061647461 0.7915405333669228 0.9763445601689276
 25 0.0674437485167025 0.0104229733316538 0.8589842818836253 0.9867675335005814
 26 0.0590334053485720 0.0070507859058187 0.9180176872321973 0.9938183194064002
 27 0.0465456732896125 0.0040991156383901 0.9645633605218099 0.9979174350447904
 28 0.0292219798521905 0.0017718319739095 0.9937853403740005 0.9996892670186999
 29 0.0062146596259994 0.0003107329813000 0.9999999999999999 0.9999999999999999

 ndtfast, nfast =   20  29   nfast/ndtfast =  1.45000

 Centers of gravity and integrals (values must be 1, 1, approx 1/2, 1, 1):

    1.000000000000 1.060707743385 0.530353871693 1.000000000000 1.000000000000

 Power filter parameters, Fgamma, gamma =  0.28400   0.14200

 Metrics information for Grid 01:
 ===============================

 Minimum X-grid spacing, DXmin =  9.56762620E-03 km
 Maximum X-grid spacing, DXmax =  9.57062196E-03 km
 Minimum Y-grid spacing, DYmin =  9.71577720E-03 km
 Maximum Y-grid spacing, DYmax =  9.71633280E-03 km
 Minimum Z-grid spacing, DZmin = -5.12358267E-01 m
 Maximum Z-grid spacing, DZmax =  5.00000000E-01 m

 Minimum barotropic Courant Number =  1.33580577E-03
 Maximum barotropic Courant Number =  1.02722974E-01
 Maximum Coriolis   Courant Number =  1.93693873E-04


 NLM: GET_STATE - Warning - NetCDF global attribute: NLM_LBC
                  for lateral boundary conditions not checked
                  in restart file: /clay/usgs/users/nganju/wfh/wfh_oxycarb_initial.nc

 NLM: GET_STATE - Read state initial conditions,             t =     0 16:46:30
                   (Grid 01, File: wfh_oxycarb_initial.nc, Rec=0001, Index=1)
                - free-surface
                   (Min = -4.90000000E+00 Max =  5.22358267E+00)
                - vertically integrated u-momentum component
                   (Min = -2.75774468E-01 Max =  2.42260480E-01)
                - vertically integrated v-momentum component
                   (Min = -1.40310954E-01 Max =  3.41021991E-01)
                - u-momentum component
                   (Min = -2.75860790E-01 Max =  2.42360970E-01)
                - v-momentum component
                   (Min = -1.60671770E-01 Max =  3.41747452E-01)
                - potential temperature
                   (Min = -8.97247145E-03 Max =  3.39809402E+01)
                - salinity
                   (Min =  8.80920683E+00 Max =  3.20204576E+01)
                - nitrate concentration
                   (Min = -8.39808963E+00 Max =  1.59642138E+02)
                - ammonium concentration
                   (Min =  1.41930635E-02 Max =  2.36580225E+00)
                - chlorophyll concentration
                   (Min = -9.43567830E-02 Max =  5.37049255E+01)
                - phytoplankton concentration
                   (Min = -6.79823115E-02 Max =  3.35829797E+01)
                - zooplankton concentration
                   (Min = -1.77406947E-01 Max =  7.79544518E+00)
                - large fraction nitrogen detritus concentration
                   (Min = -1.64715141E-01 Max =  2.46078472E+00)
                - small fraction nitrogen detritus concentration
                   (Min = -6.19292311E-01 Max =  1.16759374E+01)
                - large fraction carbon detritus concentration
                   (Min = -1.09011029E+00 Max =  1.62957439E+01)
                - small fraction carbon detritus concentration
                   (Min = -4.08299625E+00 Max =  7.70265632E+01)
                - total inorganic carbon
                   (Min =  1.86054253E+03 Max =  2.23236301E+03)
                - total alkalinity
                   (Min =  2.34883537E+03 Max =  2.35420786E+03)
                - dissolved oxygen concentration
                   (Min =  1.87401929E+02 Max =  4.45091814E+02)
                - vertical viscosity coefficient
                   (Min =  0.00000000E+00 Max =  3.38196393E-02)
                - temperature vertical diffusion coefficient
                   (Min =  0.00000000E+00 Max =  4.58468550E-02)
                - salinity vertical diffusion coefficient
                   (Min =  0.00000000E+00 Max =  4.58468550E-02)
    GET_NGFLD   - river runoff  XI-positions at RHO-points
                   (Min =  8.90000000E+01 Max =  1.50000000E+02)
    GET_NGFLD   - river runoff ETA-positions at RHO-points
                   (Min =  1.70000000E+01 Max =  1.85000000E+02)
    GET_NGFLD   - river runoff direction
                   (Min =  0.00000000E+00 Max =  0.00000000E+00)
    GET_NGFLD   - river runoff mass transport vertical profile
                   (Min =  0.00000000E+00 Max =  2.50000000E-01)
    GET_NGFLD   - river runoff mass transport,               t =     0 00:00:00
                   (Rec=0000001, Index=2, File: wfh_river_bio_NO3var.nc)
                   (Tmin=          0.0000 Tmax=        365.0000)
                   (Min = -6.26737054E-02 Max = -1.35726496E-02)
    GET_NGFLD   - river runoff potential temperature,        t =     0 00:00:00
                   (Rec=0000001, Index=2, File: wfh_river_bio_NO3var.nc)
                   (Tmin=          0.0000 Tmax=        365.0000)
                   (Min =  1.00000000E+01 Max =  1.00000000E+01)
    GET_NGFLD   - river runoff salinity,                     t =     0 00:00:00
                   (Rec=0000001, Index=2, File: wfh_river_bio_NO3var.nc)
                   (Tmin=          0.0000 Tmax=        365.0000)
                   (Min =  0.00000000E+00 Max =  0.00000000E+00)
    GET_2DFLD   - surface u-wind component,                  t =     0 15:00:30
                   (Rec=0000008, Index=1, File: wfh_bulk_frc_2012.nc)
                   (Tmin=          0.0420 Tmax=         96.5417)
                   (Min =  0.00000000E+00 Max =  0.00000000E+00)
    GET_2DFLD   - surface v-wind component,                  t =     0 15:00:30
                   (Rec=0000008, Index=1, File: wfh_bulk_frc_2012.nc)
                   (Tmin=          0.0420 Tmax=         96.5417)
                   (Min =  0.00000000E+00 Max =  0.00000000E+00)
    GET_2DFLD   - surface air pressure,                      t =     0 15:00:30
                   (Rec=0000008, Index=1, File: wfh_bulk_frc_2012.nc)
                   (Tmin=          0.0420 Tmax=         96.5417)
                   (Min =  0.00000000E+00 Max =  0.00000000E+00)
    GET_2DFLD   - surface air temperature,                   t =     0 15:00:30
                   (Rec=0000008, Index=1, File: wfh_bulk_frc_2012.nc)
                   (Tmin=          0.0420 Tmax=         96.5417)
                   (Min =  0.00000000E+00 Max =  0.00000000E+00)
    GET_2DFLD   - surface air relative humidity,             t =     0 15:00:30
                   (Rec=0000008, Index=1, File: wfh_bulk_frc_2012.nc)
                   (Tmin=          0.0420 Tmax=         96.5417)
                   (Min =  0.00000000E+00 Max =  0.00000000E+00)
    GET_2DFLD   - solar shortwave radiation flux,            t =     0 15:00:30
                   (Rec=0000008, Index=1, File: wfh_bulk_frc_2012.nc)
                   (Tmin=          0.0420 Tmax=         96.5417)
                   (Min =  0.00000000E+00 Max =  0.00000000E+00)
    GET_NGFLD   - free-surface western boundary condition,   t =     0 16:30:00
                   (Rec=0000034, Index=2, File: wfh_zeta_ubar_forc_2012.nc)
                   (Tmin=          0.0000 Tmax=         68.7406)
                   (Min =  0.00000000E+00 Max =  0.00000000E+00)
    GET_NGFLD   - 2D u-momentum western boundary condition,  t =     0 16:30:00
                   (Rec=0000034, Index=2, File: wfh_zeta_ubar_forc_2012.nc)
                   (Tmin=          0.0000 Tmax=         68.7406)
                   (Min =  0.00000000E+00 Max =  0.00000000E+00)
    GET_NGFLD   - 2D v-momentum western boundary condition,  t =     0 16:30:00
                   (Rec=0000034, Index=2, File: wfh_zeta_ubar_forc_2012.nc)
                   (Tmin=          0.0000 Tmax=         68.7406)
                   (Min =  0.00000000E+00 Max =  0.00000000E+00)
    GET_NGFLD   - temperature western boundary condition,    t =     0 16:46:29
                   (Rec=0000001, Index=2, File: wfh_zeta_ubar_forc_2012.nc)
                   (Tmin=          0.6990 Tmax=         68.7406)
                   (Min =  2.00000000E+01 Max =  2.00000000E+01)
    GET_NGFLD   - salinity western boundary condition,       t =     0 16:46:29
                   (Rec=0000001, Index=2, File: wfh_zeta_ubar_forc_2012.nc)
                   (Tmin=          0.6990 Tmax=         68.7406)
                   (Min =  3.20000000E+01 Max =  3.20000000E+01)

 Basin information for Grid 01:

 Maximum grid stiffness ratios:  rx0 =   4.044321E+02 (Beckmann and Haidvogel)
                                 rx1 =   7.684210E+03 (Haney)

 Initial basin volumes: TotVolume =  1.2091937175E+06 m3
                        MinVolume = -1.1172873751E+01 m3
                        MaxVolume =  4.6495044201E+01 m3
                          Max/Min = -4.1614221405E+00

 NL ROMS/TOMS: started time-stepping: (Grid: 01 TimeSteps: 00000001 - 00000010)

    GET_NGFLD   - river runoff mass transport,               t =     1 00:00:00
                   (Rec=0000002, Index=1, File: wfh_river_bio_NO3var.nc)
                   (Tmin=          0.0000 Tmax=        365.0000)
                   (Min = -6.26737054E-02 Max = -1.35726496E-02)
    GET_NGFLD   - river runoff potential temperature,        t =     1 00:00:00
                   (Rec=0000002, Index=1, File: wfh_river_bio_NO3var.nc)
                   (Tmin=          0.0000 Tmax=        365.0000)
                   (Min =  1.00000000E+01 Max =  1.00000000E+01)
    GET_NGFLD   - river runoff salinity,                     t =     1 00:00:00
                   (Rec=0000002, Index=1, File: wfh_river_bio_NO3var.nc)
                   (Tmin=          0.0000 Tmax=        365.0000)
                   (Min =  0.00000000E+00 Max =  0.00000000E+00)
    GET_2DFLD   - surface u-wind component,                  t =     0 17:00:30
                   (Rec=0000009, Index=2, File: wfh_bulk_frc_2012.nc)
                   (Tmin=          0.0420 Tmax=         96.5417)
                   (Min =  2.91649389E+00 Max =  2.91649389E+00)
    GET_2DFLD   - surface v-wind component,                  t =     0 17:00:30
                   (Rec=0000009, Index=2, File: wfh_bulk_frc_2012.nc)
                   (Tmin=          0.0420 Tmax=         96.5417)
                   (Min =  3.78714442E+00 Max =  3.78714442E+00)
    GET_2DFLD   - surface air pressure,                      t =     0 17:00:30
                   (Rec=0000009, Index=2, File: wfh_bulk_frc_2012.nc)
                   (Tmin=          0.0420 Tmax=         96.5417)
                   (Min =  1.00754999E+03 Max =  1.00754999E+03)
    GET_2DFLD   - surface air temperature,                   t =     0 17:00:30
                   (Rec=0000009, Index=2, File: wfh_bulk_frc_2012.nc)
                   (Tmin=          0.0420 Tmax=         96.5417)
                   (Min =  2.24410000E+01 Max =  2.24410000E+01)
    GET_2DFLD   - surface air relative humidity,             t =     0 17:00:30
                   (Rec=0000009, Index=2, File: wfh_bulk_frc_2012.nc)
                   (Tmin=          0.0420 Tmax=         96.5417)
                   (Min =  7.23000031E-01 Max =  7.23000031E-01)
    GET_2DFLD   - solar shortwave radiation flux,            t =     0 17:00:30
                   (Rec=0000009, Index=2, File: wfh_bulk_frc_2012.nc)
                   (Tmin=          0.0420 Tmax=         96.5417)
                   (Min =  2.29666120E-04 Max =  2.29666120E-04)
    GET_NGFLD   - free-surface western boundary condition,   t =     0 17:00:00
                   (Rec=0000035, Index=1, File: wfh_zeta_ubar_forc_2012.nc)
                   (Tmin=          0.0000 Tmax=         68.7406)
                   (Min =  0.00000000E+00 Max =  0.00000000E+00)
    GET_NGFLD   - 2D u-momentum western boundary condition,  t =     0 17:00:00
                   (Rec=0000035, Index=1, File: wfh_zeta_ubar_forc_2012.nc)
                   (Tmin=          0.0000 Tmax=         68.7406)
                   (Min =  0.00000000E+00 Max =  0.00000000E+00)
    GET_NGFLD   - 2D v-momentum western boundary condition,  t =     0 17:00:00
                   (Rec=0000035, Index=1, File: wfh_zeta_ubar_forc_2012.nc)
                   (Tmin=          0.0000 Tmax=         68.7406)
                   (Min =  0.00000000E+00 Max =  0.00000000E+00)
    GET_NGFLD   - temperature western boundary condition,    t =     0 17:16:29
                   (Rec=0000002, Index=1, File: wfh_zeta_ubar_forc_2012.nc)
                   (Tmin=          0.6990 Tmax=         68.7406)
                   (Min =  2.00000000E+01 Max =  2.00000000E+01)
    GET_NGFLD   - salinity western boundary condition,       t =     0 17:16:29
                   (Rec=0000002, Index=1, File: wfh_zeta_ubar_forc_2012.nc)
                   (Tmin=          0.6990 Tmax=         68.7406)
                   (Min =  3.20000000E+01 Max =  3.20000000E+01)

   STEP   Day HH:MM:SS  KINETIC_ENRG   POTEN_ENRG    TOTAL_ENRG    NET_VOLUME
          C => (i,j,k)       Cu            Cv            Cw         Max Speed

      0     0 16:46:30  4.626770E-04  2.041647E+01  2.041694E+01  1.655246E+06
          (085,053,07)  2.527323E-02  2.633420E-02  0.000000E+00  2.684065E-01
      1     0 16:46:32  5.886847E-03  2.829866E+01  2.830454E+01  1.193710E+06
          (129,175,01)  1.633219E-03  0.000000E+00  5.299334E+00  4.670324E-01
      DEF_HIS   - creating history file, Grid 01: ./his_pilarspect_0001.nc

=====================================================================================
=   BAD TERMINATION OF ONE OF YOUR APPLICATION PROCESSES
=   EXIT CODE: 6
=   CLEANING UP REMAINING PROCESSES
=   YOU CAN IGNORE THE BELOW CLEANUP MESSAGES
=====================================================================================
APPLICATION TERMINATED WITH THE EXIT STRING: Aborted (signal 6)
